36
0 1
C 0.00000 3.66437 0.72516
C 0.00000 3.66437 -0.72516
C 0.00000 4.92416 1.40507
C 0.00000 2.45868 1.40277
C 0.00000 4.92416 -1.40507
C 0.00000 2.45868 -1.40277
C 0.00000 6.09443 -0.71413
C 0.00000 6.09443 0.71413
C 0.00000 1.22182 0.72624
C 0.00000 1.22182 -0.72624
C 0.00000 0.00000 1.40326
C 0.00000 0.00000 -1.40326
C 0.00000 -1.22182 0.72624
C 0.00000 -1.22182 -0.72624
C 0.00000 -2.45868 1.40277
C 0.00000 -2.45868 -1.40277
C 0.00000 -3.66437 0.72516
C 0.00000 -3.66437 -0.72516
C 0.00000 -4.92416 1.40507
C 0.00000 -4.92416 -1.40507
C 0.00000 -6.09443 0.71413
C 0.00000 -6.09443 -0.71413
H 0.00000 4.92481 2.48786
H 0.00000 2.46018 2.48635
H 0.00000 4.92481 -2.48786
H 0.00000 2.46018 -2.48635
H 0.00000 7.03794 -1.24357
H 0.00000 7.03794 1.24357
H 0.00000 0.00000 2.48673
H 0.00000 0.00000 -2.48673
H 0.00000 -2.46018 2.48635
H 0.00000 -2.46018 -2.48635
H 0.00000 -4.92481 2.48786
H 0.00000 -4.92481 -2.48786
H 0.00000 -7.03794 1.24357
H 0.00000 -7.03794 -1.24357
