12

C                1.384715    -0.222153     0.005497
C                0.507127    -1.308852    -0.008980
C               -0.872745    -1.092141    -0.013700
C               -1.375165     0.211208    -0.004512
C               -0.497589     1.297840     0.009678
C                0.882336     1.081141     0.014996
H                2.458616    -0.390837     0.009436
H                0.898131    -2.323148    -0.016030
H               -1.555754    -1.937793    -0.025096
H               -2.449076     0.379796    -0.008391
H               -0.888551     2.312151     0.017175
H                1.565306     1.926828     0.025935
